Version 4
SHEET 1 880 680
WIRE 32 64 -128 64
WIRE 144 64 32 64
WIRE 0 96 -128 96
WIRE 144 96 0 96
WIRE 416 112 224 112
WIRE -32 128 -128 128
WIRE 144 128 -32 128
WIRE -64 160 -128 160
WIRE 144 160 -64 160
WIRE 32 240 32 64
WIRE 80 240 32 240
WIRE 416 256 288 256
WIRE 0 272 0 96
WIRE 80 272 0 272
WIRE -32 304 -32 128
WIRE 80 304 -32 304
WIRE -64 336 -64 160
WIRE 80 336 -64 336
FLAG -128 64 A1
IOPIN -128 64 In
FLAG -128 96 A2
IOPIN -128 96 In
FLAG -128 128 B1
IOPIN -128 128 In
FLAG -128 160 B2
IOPIN -128 160 In
FLAG 416 112 comp
IOPIN 416 112 Out
FLAG 416 256 carry_out
IOPIN 416 256 Out
SYMBOL comparator 176 112 R0
SYMATTR InstName X1
SYMBOL fulladder_4bit 176 288 R0
SYMATTR InstName X2
