Version 4
SHEET 1 1060 680
WIRE 16 176 -64 176
WIRE 224 176 176 176
WIRE 384 176 352 176
WIRE 608 176 544 176
WIRE 752 176 704 176
WIRE 960 176 912 176
WIRE 16 224 -64 224
WIRE 384 224 352 224
WIRE 752 224 704 224
WIRE -64 304 -64 224
WIRE -64 304 -128 304
WIRE 352 304 352 224
WIRE 352 304 -64 304
WIRE 704 304 704 224
WIRE 704 304 352 304
WIRE 224 336 224 176
WIRE 608 336 608 176
WIRE 960 336 960 176
FLAG -64 176 A1
IOPIN -64 176 In
FLAG 352 176 A2
IOPIN 352 176 In
FLAG -128 304 clock
IOPIN -128 304 In
FLAG 224 336 A1_out
IOPIN 224 336 Out
FLAG 608 336 A2_out
IOPIN 608 336 Out
FLAG 704 176 A3
IOPIN 704 176 In
FLAG 960 336 A3_out
IOPIN 960 336 Out
SYMBOL Digital\\dflop 96 128 R0
SYMATTR InstName A1
SYMBOL Digital\\dflop 464 128 R0
SYMATTR InstName A2
SYMBOL Digital\\dflop 832 128 R0
SYMATTR InstName A3
