Version 4
SHEET 1 880 680
WIRE 32 144 -64 144
WIRE 192 144 160 144
WIRE 32 176 -64 176
WIRE 272 176 160 176
WIRE 272 224 224 224
WIRE 192 256 192 144
WIRE 192 256 -16 256
WIRE 32 320 -64 320
WIRE 272 336 160 336
WIRE 32 352 -64 352
WIRE 224 368 224 224
WIRE 224 368 160 368
WIRE -16 384 -16 256
WIRE 32 384 -16 384
FLAG -64 144 A1
IOPIN -64 144 In
FLAG -64 176 B1
IOPIN -64 176 In
FLAG -64 320 A2
IOPIN -64 320 In
FLAG -64 352 B2
IOPIN -64 352 In
FLAG 272 176 Y1
IOPIN 272 176 Out
FLAG 272 224 Y2
IOPIN 272 224 Out
FLAG 272 336 Carry_out
IOPIN 272 336 Out
SYMBOL halfadder 96 160 R0
SYMATTR InstName X1
SYMBOL fulladder 96 352 R0
SYMATTR InstName X2
