Version 4
SHEET 1 880 680
WIRE 144 176 0 176
WIRE 432 176 272 176
WIRE 576 192 496 192
WIRE 144 208 0 208
WIRE 304 208 272 208
WIRE 432 240 336 240
WIRE 304 256 304 208
WIRE 304 256 96 256
WIRE 96 320 96 256
WIRE 144 320 96 320
WIRE 336 320 336 240
WIRE 336 320 272 320
WIRE 144 352 0 352
WIRE 576 352 272 352
FLAG 0 176 Ai
IOPIN 0 176 In
FLAG 0 208 Bi
IOPIN 0 208 In
FLAG 576 192 Ci+1
IOPIN 576 192 Out
FLAG 0 352 Ci
IOPIN 0 352 In
FLAG 576 352 Yi
IOPIN 576 352 Out
SYMBOL halfadder 208 192 R0
SYMATTR InstName half_adder
SYMBOL halfadder 208 336 R0
SYMATTR InstName half_adder_2
SYMBOL Digital\\or 464 144 R0
SYMATTR InstName A1
