Version 4
SHEET 1 880 680
WIRE 144 80 32 80
WIRE 384 80 288 80
WIRE 144 112 112 112
WIRE 144 240 32 240
WIRE 384 240 288 240
WIRE 112 272 112 112
WIRE 144 272 112 272
WIRE 144 400 32 400
WIRE 384 400 288 400
WIRE 112 432 112 272
WIRE 144 432 112 432
WIRE 112 528 112 432
WIRE 112 528 32 528
FLAG 32 80 Carry_out
IOPIN 32 80 In
FLAG 32 240 bit_meno_significativo
IOPIN 32 240 In
FLAG 32 400 bit_piu_significativo
IOPIN 32 400 In
FLAG 384 240 bit_meno
IOPIN 384 240 Out
FLAG 384 400 bit_piu
IOPIN 384 400 Out
FLAG 384 80 carry
IOPIN 384 80 Out
FLAG 32 528 clock
IOPIN 32 528 In
SYMBOL masterslave 208 96 R0
SYMATTR InstName X1
SYMBOL masterslave 208 256 R0
SYMATTR InstName X2
SYMBOL masterslave 208 416 R0
SYMATTR InstName X3
