Version 4
SHEET 1 880 680
WIRE 32 112 -96 112
WIRE 256 128 160 128
WIRE 32 144 -32 144
WIRE 32 256 -96 256
WIRE 256 272 160 272
WIRE -32 288 -32 144
WIRE 32 288 -32 288
WIRE 32 400 -96 400
WIRE 256 416 160 416
WIRE -32 432 -32 288
WIRE 32 432 -32 432
WIRE -32 496 -32 432
WIRE -32 496 -96 496
FLAG -96 496 clock
IOPIN -96 496 In
FLAG -96 400 bit_piu
IOPIN -96 400 In
FLAG -96 256 bit_meno
IOPIN -96 256 In
FLAG -96 112 carry_out
IOPIN -96 112 In
FLAG 256 128 carry
IOPIN 256 128 Out
FLAG 256 272 meno
IOPIN 256 272 Out
FLAG 256 416 piu
IOPIN 256 416 Out
SYMBOL master_slave 96 128 R0
SYMATTR InstName X1
SYMBOL master_slave 96 272 R0
SYMATTR InstName X2
SYMBOL master_slave 96 416 R0
SYMATTR InstName X3
