Version 4
SHEET 1 880 680
WIRE -16 -32 -464 -32
WIRE -512 48 -576 48
WIRE -400 48 -512 48
WIRE -272 48 -336 48
WIRE -464 80 -464 -32
WIRE -400 80 -464 80
WIRE -272 80 -272 48
WIRE -176 80 -272 80
WIRE -16 80 -16 -32
WIRE 32 80 -16 80
WIRE 192 80 96 80
WIRE -176 112 -224 112
WIRE -64 112 -112 112
WIRE 32 112 -64 112
WIRE 192 128 192 80
WIRE 288 128 192 128
WIRE -64 160 -64 112
WIRE -64 160 -256 160
WIRE 288 160 256 160
WIRE 384 160 352 160
WIRE 432 160 384 160
WIRE 384 192 384 160
WIRE 384 192 240 192
WIRE 256 208 256 160
WIRE 368 208 256 208
WIRE -464 224 -464 80
WIRE -464 224 -576 224
WIRE -224 240 -224 112
WIRE -64 240 -224 240
WIRE 240 240 240 192
WIRE 288 240 240 240
WIRE 288 272 192 272
WIRE 368 272 368 208
WIRE 368 272 352 272
WIRE 432 272 368 272
WIRE -256 288 -256 160
WIRE -176 288 -256 288
WIRE -16 288 -16 80
WIRE 32 288 -16 288
WIRE 192 288 192 272
WIRE 192 288 96 288
WIRE -176 320 -272 320
WIRE -64 320 -64 240
WIRE -64 320 -112 320
WIRE 32 320 -64 320
WIRE -464 336 -464 224
WIRE -400 336 -464 336
WIRE -272 336 -272 320
WIRE -272 336 -336 336
WIRE -512 368 -512 48
WIRE -464 368 -512 368
FLAG 432 160 Q
IOPIN 432 160 Out
FLAG 432 272 Qn
IOPIN 432 272 Out
FLAG -576 48 D
IOPIN -576 48 In
FLAG -576 224 Clock
IOPIN -576 224 In
SYMBOL Digital\\and 64 32 R0
SYMATTR InstName A1
SYMBOL Digital\\and 64 240 R0
SYMATTR InstName A2
SYMBOL Digital\\or 320 80 R0
SYMATTR InstName A3
SYMBOL Digital\\or 320 192 R0
SYMATTR InstName A4
SYMBOL Digital\\and -144 32 R0
SYMATTR InstName A5
SYMBOL Digital\\and -144 240 R0
SYMATTR InstName A6
SYMBOL Digital\\or -368 0 R0
SYMATTR InstName A7
SYMBOL Digital\\or -368 288 R0
SYMATTR InstName A8
SYMBOL Digital\\inv -464 304 R0
SYMATTR InstName A9
