Version 4
SHEET 1 880 680
WIRE 16 128 -96 128
WIRE 288 128 160 128
WIRE 512 128 432 128
WIRE -48 160 -64 160
WIRE 288 160 224 160
WIRE -64 256 -64 160
WIRE -64 256 -96 256
WIRE 224 256 224 160
WIRE 224 256 -64 256
FLAG -96 128 D
IOPIN -96 128 In
FLAG -96 256 Clock
IOPIN -96 256 In
FLAG 512 128 Q
IOPIN 512 128 Out
SYMBOL d_latch 80 144 R0
SYMATTR InstName X1
SYMBOL d_latch 352 144 R0
SYMATTR InstName X2
SYMBOL Digital\\inv -48 96 R0
SYMATTR InstName A1
