Version 4
SHEET 1 880 680
WIRE 128 128 64 128
WIRE 240 144 192 144
WIRE 128 160 64 160
WIRE 240 208 240 144
WIRE 304 208 240 208
WIRE 160 224 160 208
WIRE 224 224 160 224
WIRE 448 224 368 224
WIRE 304 240 240 240
WIRE 128 288 64 288
WIRE 240 304 240 240
WIRE 240 304 192 304
WIRE 128 320 64 320
WIRE 160 400 160 368
WIRE 224 400 224 224
WIRE 224 400 160 400
WIRE 224 480 224 400
WIRE 336 480 336 288
FLAG 64 128 A1
IOPIN 64 128 In
FLAG 64 160 A2
IOPIN 64 160 In
FLAG 64 288 A3
IOPIN 64 288 In
FLAG 64 320 A4
IOPIN 64 320 In
FLAG 224 480 Sel1
IOPIN 224 480 In
FLAG 336 480 Sel2
IOPIN 336 480 In
FLAG 448 224 Ris
IOPIN 448 224 Out
SYMBOL multiplexer 160 144 R0
SYMATTR InstName X1
SYMBOL multiplexer 160 304 R0
SYMATTR InstName X2
SYMBOL multiplexer 336 224 R0
SYMATTR InstName X3
